# BAS6 package for  MODFLOW-NWT, generated by Flopy.
FREE
INTERNAL               1     (FREE) -1 #ibound_layer_0                
        -1         1         1         1         1         1         1         1         1        -1
        -1         1         1         1         1         1         1         1         1        -1
        -1         1         1         1         1         1         1         1         1        -1
        -1         1         1         1         1         1         1         1         1        -1
        -1         1         1         1         1         1         1         1         1        -1
        -1         1         1         1         1         1         1         1         1        -1
        -1         1         1         1         1         1         1         1         1        -1
        -1         1         1         1         1         1         1         1         1        -1
        -1         1         1         1         1         1         1         1         1        -1
        -1         1         1         1         1         1         1         1         1        -1
    -999.0
INTERNAL               1     (FREE) -1 #strt_layer_0                  
   9.500000E+00   1.000000E+01   1.000000E+01   1.000000E+01   1.000000E+01   1.000000E+01   1.000000E+01   1.000000E+01   1.000000E+01   9.000000E+00
   9.500000E+00   1.000000E+01   1.000000E+01   1.000000E+01   1.000000E+01   1.000000E+01   1.000000E+01   1.000000E+01   1.000000E+01   9.000000E+00
   9.500000E+00   1.000000E+01   1.000000E+01   1.000000E+01   1.000000E+01   1.000000E+01   1.000000E+01   1.000000E+01   1.000000E+01   9.000000E+00
   9.500000E+00   1.000000E+01   1.000000E+01   1.000000E+01   1.000000E+01   1.000000E+01   1.000000E+01   1.000000E+01   1.000000E+01   9.000000E+00
   9.500000E+00   1.000000E+01   1.000000E+01   1.000000E+01   1.000000E+01   1.000000E+01   1.000000E+01   1.000000E+01   1.000000E+01   9.000000E+00
   9.500000E+00   1.000000E+01   1.000000E+01   1.000000E+01   1.000000E+01   1.000000E+01   1.000000E+01   1.000000E+01   1.000000E+01   9.000000E+00
   9.500000E+00   1.000000E+01   1.000000E+01   1.000000E+01   1.000000E+01   1.000000E+01   1.000000E+01   1.000000E+01   1.000000E+01   9.000000E+00
   9.500000E+00   1.000000E+01   1.000000E+01   1.000000E+01   1.000000E+01   1.000000E+01   1.000000E+01   1.000000E+01   1.000000E+01   9.000000E+00
   9.500000E+00   1.000000E+01   1.000000E+01   1.000000E+01   1.000000E+01   1.000000E+01   1.000000E+01   1.000000E+01   1.000000E+01   9.000000E+00
   9.500000E+00   1.000000E+01   1.000000E+01   1.000000E+01   1.000000E+01   1.000000E+01   1.000000E+01   1.000000E+01   1.000000E+01   9.000000E+00
