# WEL package for  MODFLOW-NWT, generated by Flopy.
        1         0
        1         0 # stress period 1
         1         4         4         -1000.0

