# # MPBAS package for MODPATH 7, generated by Flopy.
-999 -888
0                   # DEFAULTIFACECOUNT
         1
INTERNAL               1    (10I10) -1 #ibound layer 1                
        -1         1         1         1         1         1         1         1         1        -1
        -1         1         1         1         1         1         1         1         1        -1
        -1         1         1         1         1         1         1         1         1        -1
        -1         1         1         1         1         1         1         1         1        -1
        -1         1         1         1         1         1         1         1         1        -1
        -1         1         1         1         1         1         1         1         1        -1
        -1         1         1         1         1         1         1         1         1        -1
        -1         1         1         1         1         1         1         1         1        -1
        -1         1         1         1         1         1         1         1         1        -1
        -1         1         1         1         1         1         1         1         1        -1
CONSTANT    3.000000E-01                           #porosity layer 1              
