# UPW package for  MODFLOW-NWT, generated by Flopy.
        40      -888         0         0 
         1
         0
  -1.000000E+00
         1
         0
CONSTANT    3.000000E+00                           #hk                            
CONSTANT    1.000000E+00                           #hani                          
CONSTANT    3.000000E+00                           #vani                          
