
MODPATH Version 7.2.001   
Program compiled Jan 14 2019 13:37:44 with GFORTRAN compiler (ver. 7.3.0)       

This software has been approved for release by the U.S. Geological
Survey (USGS). Although the software has been subjected to rigorous
review, the USGS reserves the right to update the software as needed
pursuant to further analysis and review. No warranty, expressed or
implied, is made by the USGS or the U.S. Government as to the
functionality of the software and related material nor shall the
fact of release constitute any such warranty. Furthermore, the
software is released on condition that neither the USGS nor the U.S.
Government shall be held liable for any damages resulting from its
authorized or unauthorized use. Also refer to the USGS Water
Resources Software User Rights Notice for complete use, copyright,
and distribution information.


MODPATH name file data
----------------------
   MPBAS File: test.mpbas
MODFLOW-2005/MOtest.dis
    HEAD File: test.hds
  BUDGET File: test.cbb

Grid data
---------
Grid file type: MODFLOW-2005 discretization file (DIS)
 # DIS package for  MODFLOW-NWT, generated by Flopy.

 DX                       =   549.000    

 DY                       =   303.000    

 TOP ELEVATION            =   10.0000     FOR LAYER   1



           BOTTOM ELEVATION         FOR LAYER   1
 READING ON UNIT  101 WITH FORMAT: (FREE)              
 Stress period count =          1

 Time discretization file data
 -----------------------------
 Period length:        1.00000 Time step count:         1 Time step multiplier:        1.00000 Stress period type:SS

 The budget file was opened successfully.

 MODPATH basic data file data
 ----------------------------
 # # MPBAS package for MODPATH 7, generated by Flopy.
 Aquifer head is set to  -999.00     at all no-flow cells (IBOUND=0).
 Aquifer head is set to  -888.00     at all dry cells.


 Layer type (LAYTYP)
  1



                     BOUNDARY ARRAY FOR LAYER   1
 READING ON UNIT  112 WITH FORMAT: (10I10)             

                 POROSITY =  0.300000     FOR LAYER   1

 MODPATH simulation file data
 ----------------------------
 # MPSIM package for MODPATH 7, generated by Flopy.
Pathline Analysis (Simulation type = 2)
Backward tracking (Tracking direction = 2)
Stop particles when they enter weak sink cells. (Weak sink option = 2)
Stop particles when they enter weak source cells for backtracking simulations (Weak source option = 2)
Reference time =   0.0000000E+00
Extend initial or final steady-state time step and continue tracking (Stopping time option =  2)
The zone value for all cells = 1

The retardation factor for all cells = 1

Number of particle groups =     1
Particle group    1 contains          1 particles.
Total number of particles =          1


 Budget File Data
 ----------------
    Budget file type:  Structured grid
  Budget file format:  Standard
    Budget precision:  Single

The simulation will be run with stoptime =   0.1000000E+31


 Run particle tracking simulation ...

 ----------------------------------------------------------------------------------------------
 Processing Time Step     1 Period     1.  Time =  1.00000E+00  Steady-state flow                                                    
   (Cumulative step =      1)
 ----------------------------------------------------------------------------------------------

Particle Summary:
         0 particles are pending release.
         0 particles remain active.
         0 particles terminated at boundary faces.
         0 particles terminated at weak sink cells.
         1 particles terminated at weak source cells.
         0 particles terminated at strong source/sink cells or other cells with no potential exit face.
         0 particles terminated in cells with a specified zone number.
         0 particles were stranded in inactive or dry cells.
         0 particles were unreleased.
         0 particles have an unknown status.
 

Normal termination.                                                        
 Elapsed time =     0.00000E+00 seconds
