# Name file for MODFLOW-NWT, generated by Flopy version 3.2.10.
#xul:439760; yul:4455320; rotation:0; proj4_str:+proj=utm +zone=12 +ellps=WGS84 +datum=WGS84 +units=m +no_defs ; units:meters; lenuni:2; length_multiplier:1.0 ;start_datetime:01-01-1970
LIST               2  test.out
DIS                7  test.dis 
BAS6               8  test.ba6 
UPW               12  test.upw 
OC                10  test.oc 
SFR               14  test.sfr 
NWT               13  test.nwt 
WEL               20  test.wel 
DATA(BINARY)      40  test.cbb REPLACE
DATA(BINARY)       3  test.hds REPLACE
