# SFR package for  MODFLOW-NWT, generated by Flopy.
9 1 0 0 86400.00000000 0.00010000 40 -40 
1 4 3 1 1 373.0025
1 4 4 1 2 290.1688
1 5 4 1 3 280.2445
1 5 5 1 4 577.3907
1 5 6 1 5 140.0838
1 6 6 1 6 447.5074
1 6 7 1 7 402.5966
1 7 7 1 8 184.9945
1 7 8 1 9 320.0178
1 0 0 0
1 1 0 0 10.0 0 0 0 0.1 
1.0 1.0 9.5 0.1 
1.0 1.0 9.4 0.1 
