# OC package for  MODFLOW-NWT, generated by Flopy.
HEAD PRINT FORMAT   0
HEAD SAVE UNIT     3
DRAWDOWN PRINT FORMAT   0

period 1 step 1 
  print budget
  save head
  save budget

