# MPSIM package for MODPATH 7, generated by Flopy.
test.mpnam
test.mplst
2 2 2 2 0 0
test.mpend
test.mppth
0
1
0
2
1
1
1
flow_path
1
0.0
EXTERNAL flow_path.sloc
