# WEL package for  MODFLOW-NWT, generated by Flopy.
         3         0
         3         0 # stress period 1
         1         4         4         -1000.0
         1         5         6         -5000.0
         1         5         6         -2000.0
