# Name file for MODPATH 7, generated by Flopy version 3.2.10.
MPBAS      test.mpbas
DIS        test.dis
HEAD       test.hds
BUDGET     test.cbb
